*HEADING
cubit(/Non_Planar/Test_Mesh/subduct/Scotia/SmoothEdgeMeshV5.inp): 04/04/2017: 14
version: 14.0
**
********************************** P A R T S **********************************
*PART, NAME=Part-Default
**
********************************** N O D E S **********************************
*NODE, NSET=ALLNODES
    3632,    3.118078e+06,    2.812470e+06,   -7.475731e+03
    3633,    3.120820e+06,    2.855176e+06,   -8.015095e+03
    3634,    3.119089e+06,    2.826700e+06,   -7.639903e+03
    3635,    3.120050e+06,    2.840932e+06,   -7.812081e+03
    3636,    3.113700e+06,    2.811256e+06,   -7.682529e+03
    3637,    3.111575e+06,    2.790300e+06,   -7.774272e+03
    3638,    3.106664e+06,    2.788979e+06,   -7.738906e+03
    3639,    3.103760e+06,    2.770020e+06,   -7.541099e+03
    3640,    3.098727e+06,    2.767509e+06,   -7.491604e+03
    3641,    3.096372e+06,    2.754030e+06,   -7.251579e+03
    3642,    3.090795e+06,    2.751741e+06,   -7.336805e+03
    3643,    3.088084e+06,    2.738961e+06,   -7.094100e+03
    3644,    3.083764e+06,    2.737088e+06,   -7.231335e+03
    3645,    3.080648e+06,    2.724767e+06,   -7.035323e+03
    3646,    3.076601e+06,    2.722778e+06,   -7.228542e+03
    3647,    3.073280e+06,    2.707307e+06,   -7.259232e+03
    3648,    3.068972e+06,    2.706888e+06,   -7.459944e+03
    3649,    3.058874e+06,    2.680812e+06,   -8.015770e+03
    3650,    3.063923e+06,    2.693850e+06,   -7.737857e+03
    3651,    3.046585e+06,    2.678133e+06,   -8.301485e+03
** ... 1080 like lines cut
**
********************************** E L E M E N T S ****************************
*ELEMENT, TYPE=STRI3, ELSET=EB1
    1841,    3691,    3687,    3689
    1842,    3647,    3648,    3769
    1843,    3647,    3769,    3646
    1844,    3771,    3770,    3769
    1845,    3771,    3769,    3648
    1846,    3650,    3772,    3771
    1847,    3650,    3771,    3648
    1848,    3649,    3651,    3772
    1849,    3649,    3772,    3650
    1850,    3670,    3774,    3773
    1851,    3670,    3773,    3671
    1852,    3776,    3775,    3774
    1853,    3776,    3774,    3670
    1854,    3672,    3673,    3776
    1855,    3672,    3776,    3670
    1856,    3770,    3779,    3778
    1857,    3770,    3778,    3769
    1858,    3781,    3780,    3779
    1859,    3781,    3779,    3770
    1860,    3770,    3771,    3782
** ... 2041 like lines cut
**
********************************** N O D E S E T S **********************************
*NSET, NSET=NS1
    3632,    3633,    3634,    3635,    3636,    3637,
    3638,    3639,    3640,    3641,    3642,    3643,
    3644,    3645,    3646,    3647,    3648,    3649,
    3650,    3651,    3652,    3653,    3654,    3655,
    3656,    3657,    3658,    3659,    3660,    3661,
    3662,    3663,    3664,    3665,    3666,    3667,
    3668,    3669,    3670,    3671,    3672,    3673,
    3674,    3675,    3676,    3677,    3678,    3679,
    3680,    3681,    3682,    3683,    3684,    3685,
    3686,    3687,    3688,    3689,    3690,    3691,
    3692,    3693,    3694,    3695,    3696,    3697,
    3698,    3699,    3700,    3701,    3702,    3703,
    3704,    3705,    3706,    3707,    3708,    3709,
    3710,    3711,    3712,    3713,    3714,    3715,
    3716,    3717,    3718,    3719,    3720,    3721,
    3722,    3723,    3724,    3725,    3726,    3727,
    3728,    3729,    3730,    3731,    3732,    3733,
    3734,    3735,    3736,    3737,    3738,    3739,
    3740,    3741,    3742,    3743,    3744,    3745,
    3746,    3747,    3748,    3749,    3750,    3751,
** ... 164 like lines cut
**
********************************** P R O P E R T I E S ************************
*SHELL SECTION, ELSET=EB1, SECTION INTEGRATION=SIMPSON, MATERIAL=Default-Steel
1.000000e+00
**
*END PART
**
**
**
********************************** E N D   P A R T S **********************************
**
**
********************************** A S S E M B L Y ************************************
**
*ASSEMBLY, NAME=ASSEMBLY1
**
*INSTANCE, NAME=Part-Default_1, PART=Part-Default
*END INSTANCE
**
*END ASSEMBLY
**
**
**
*MATERIAL, NAME = Default-Steel
*ELASTIC, TYPE=ISOTROPIC
2.068000e+05, 2.900000e-01
*DENSITY
7.000000e-06
*CONDUCTIVITY,TYPE=ISO
4.500000e-02
*SPECIFIC HEAT
5.000000e+02
**
**
************************************** H I S T O R Y *************************************
**
*PREPRINT
**
**************************************** S T E P 1 ***************************************
*STEP,INC=100,NAME=Default Set
**
*STATIC
1, 1, 1e-05, 1
**
**
**
**
*END STEP
